30

  C        0.89140       -0.73168       -0.35952
  C        2.11263       -1.46501       -0.07362
  C        0.88992        0.70163       -0.39854
  C       -0.30858        1.44171       -0.69018
  C       -1.55427        0.76701       -0.89026
  C       -1.57120       -0.66897       -0.82648
  C       -0.35694       -1.40914       -0.57702
  C       -2.76954        1.51831       -1.13777
  O        2.13526       -2.48274        0.65192
  O        3.35685       -1.13844       -0.51110
  O       -3.07614        2.55046       -0.49391
  O       -3.66852        1.16863       -2.08856
  C        2.07564        1.43599       -0.09464
  C        2.15677        2.82404       -0.25035
  C        0.99535        3.54187       -0.53647
  C       -0.20300        2.86354       -0.75183
  C       -1.65389       -3.51610       -0.74239
  C       -0.44867       -2.84210       -0.56570
  C       -2.78064       -1.40257       -0.98990
  C       -2.81922       -2.79625       -0.97585
  H        2.91333        0.99346        0.27883
  H        3.03597        3.30600       -0.11467
  H        1.00460        4.56376       -0.55143
  H       -0.99769        3.46600       -0.95804
  H       -1.67316       -4.53097       -0.70245
  H        0.35477       -3.44874       -0.44221
  H       -3.68318       -0.95668       -1.11735
  H       -3.70428       -3.27107       -1.12860
  H        3.52423       -0.25504       -0.91657
  H       -4.47674        1.70696       -2.22038
